*********************************************************************
*
* IBIS filename: ltc6957_3.ibs
* Component: LTC6957_3
* Model: 6957_CMOS_OUT
* Model Type: Output
* Corner: Typical
* Voltage Range (V): [3.3 3.15 3.45] (Typ, Min, Max)
* Temperature Range (degC): [50.0 -40.0 110.0] (Typ, Min, Max)
* SPICE subcircuit model created with pybis2spice version 1.2
* For more info, visit https://github.com/kamratia1/pybis2spice/
*
*********************************************************************

.SUBCKT 6957_CMOS_OUT-Output-Typical OUT params: freq=10Meg duty=0.5

.param C_pkg = 3e-13
.param L_pkg = 1e-09
.param R_pkg = 0.14
.param C_comp = 6.59e-13

R1 OUT MID {R_pkg}
L1 DIE MID {L_pkg}
C1 OUT 0 {C_pkg}
C2 DIE 0 {C_comp}

V3 PULLUP_REF 0 3.3
B3 DIE PULLUP_REF I={V(Ku)*table(V(DIE), -3.3, -1.49, -1.3500000000000005, -0.363, -1.1600000000000001, -0.253, -1.1400000000000006, -0.241, -1.0600000000000005, -0.196, -1.0499999999999998, -0.19, -1.04, -0.185, -0.8500000000000005, -0.0841, -0.7599999999999998, -0.0613, -0.6900000000000004, -0.0557, -0.6200000000000001, -0.0533, -0.5700000000000003, -0.0525, -0.4700000000000002, -0.0518, -0.43000000000000016, -0.0517, -0.3900000000000001, -0.0516, -0.31000000000000005, -0.0514, -0.27, -0.0513, -0.1900000000000004, -0.0511, -0.15000000000000036, -0.051, -0.07000000000000028, -0.0508, -0.040000000000000036, -0.0507, 0.07999999999999963, -0.0504, 0.19999999999999973, -0.05, 0.2599999999999998, -0.0498, 0.31999999999999984, -0.0496, 0.3799999999999999, -0.0494, 0.43999999999999995, -0.0492, 0.5, -0.049, 0.5599999999999996, -0.0487, 0.6199999999999997, -0.0485, 0.6799999999999997, -0.0482, 0.7399999999999998, -0.0479, 0.7999999999999998, -0.0476, 0.8599999999999999, -0.0472, 0.9199999999999999, -0.0469, 0.98, -0.0465, 1.04, -0.0461, 1.0999999999999996, -0.0456, 1.1599999999999997, -0.0451, 1.2199999999999998, -0.0446, 1.2799999999999998, -0.044, 1.3399999999999999, -0.0434, 1.4, -0.0427, 1.4599999999999997, -0.042, 1.5199999999999998, -0.0413, 1.5799999999999998, -0.0405, 1.64, -0.0396, 1.6799999999999997, -0.0391, 1.6999999999999997, -0.0388, 1.7099999999999997, -0.0386, 1.7199999999999998, -0.0385, 1.7299999999999998, -0.0383, 1.7399999999999998, -0.0381, 1.7499999999999998, -0.038, 1.7599999999999998, -0.0378, 1.7699999999999998, -0.0377, 1.7799999999999998, -0.0375, 1.7899999999999998, -0.0373, 1.8399999999999999, -0.0365, 1.9, -0.0355, 1.9599999999999997, -0.0344, 2.0199999999999996, -0.0333, 2.08, -0.0321, 2.1399999999999997, -0.0309, 2.26, -0.0283, 2.38, -0.0256, 2.5, -0.0228, 2.6199999999999997, -0.0198, 2.7199999999999998, -0.0171, 2.8, -0.015, 2.84, -0.0138, 2.88, -0.0127, 2.92, -0.0116, 2.96, -0.0104, 3.0, -0.00925, 3.04, -0.00806, 3.0799999999999996, -0.00686, 3.1199999999999997, -0.00565, 3.1599999999999997, -0.00442, 3.1999999999999997, -0.00317, 3.2399999999999998, -0.00191, 3.28, -0.000641, 3.32, 0.000644, 3.36, 0.00194, 3.4, 0.00324, 3.4299999999999997, 0.00421, 3.4899999999999998, 0.00618, 3.55, 0.00815, 3.61, 0.0101, 3.67, 0.0121, 3.73, 0.0141, 3.79, 0.0161, 3.8499999999999996, 0.0181, 3.9699999999999998, 0.0222, 4.09, 0.0298, 4.21, 0.113, 4.33, 0.232, 4.449999999999999, 0.354, 4.57, 0.477, 6.6, 2.56)}
V4 PULLDOWN_REF 0 0.0
B4 DIE PULLDOWN_REF I={V(Kd)*table(V(DIE), -3.3, -1.46, -1.2, -0.239, -1.11, -0.187, -0.99, -0.119, -0.87, -0.0599, -0.75, -0.0371, -0.63, -0.0289, -0.51, -0.0234, -0.39, -0.0181, -0.33, -0.0154, -0.27, -0.0127, -0.21, -0.00992, -0.15, -0.00712, -0.09, -0.00429, -0.03, -0.00144, 0.03, 0.00143, 0.06, 0.00285, 0.1, 0.00472, 0.14, 0.00655, 0.18, 0.00837, 0.22, 0.0101, 0.26, 0.0119, 0.3, 0.0136, 0.34, 0.0153, 0.38, 0.017, 0.42, 0.0186, 0.46, 0.0202, 0.5, 0.0218, 0.54, 0.0233, 0.58, 0.0249, 0.62, 0.0263, 0.66, 0.0278, 0.74, 0.0306, 0.84, 0.0338, 0.96, 0.0374, 1.08, 0.0406, 1.32, 0.0455, 1.38, 0.0465, 1.44, 0.0473, 1.5, 0.048, 1.56, 0.0485, 1.62, 0.0491, 1.67, 0.0494, 1.68, 0.0495, 1.69, 0.0496, 1.7, 0.0496, 1.71, 0.0497, 1.72, 0.0497, 1.73, 0.0498, 1.74, 0.0499, 1.75, 0.0499, 1.76, 0.05, 1.78, 0.0501, 1.82, 0.0503, 1.88, 0.0506, 1.94, 0.0508, 2.0, 0.051, 2.06, 0.0512, 2.12, 0.0514, 2.18, 0.0515, 2.24, 0.0516, 2.3, 0.0518, 2.36, 0.0519, 2.42, 0.052, 2.48, 0.0521, 2.54, 0.0522, 2.6, 0.0522, 2.66, 0.0523, 2.72, 0.0524, 2.78, 0.0525, 2.84, 0.0525, 2.9, 0.0526, 2.96, 0.0526, 3.02, 0.0527, 3.08, 0.0528, 3.14, 0.0528, 3.2, 0.0529, 3.26, 0.0529, 3.32, 0.053, 3.38, 0.053, 3.44, 0.0531, 3.5, 0.0531, 3.53, 0.0531, 3.57, 0.0531, 3.61, 0.0532, 3.65, 0.0532, 3.69, 0.0532, 3.73, 0.0533, 3.77, 0.0533, 3.81, 0.0533, 3.85, 0.0534, 3.89, 0.0535, 3.93, 0.0536, 4.03, 0.0545, 4.08, 0.057, 4.15, 0.0834, 4.22, 0.148, 4.31, 0.235, 4.5, 0.426, 6.6, 2.55)}

* Define Oscillation Sources
.param calc_gap_pos = {(duty/freq) - 6.6e-10 - 4e-10}
.param calc_gap_neg = {((1-duty)/freq) - 9.7e-10 - 4.9e-10}

.param GAP_POS = {if(calc_gap_pos <= 0, 0.1e-12, calc_gap_pos)}
.param GAP_NEG = {if(calc_gap_neg <= 0, 0.1e-12, calc_gap_neg)}

V5 Ku 0 PWL(0 -9.868971785343811e-05 +0.01e-12 -9.868971785343811e-05 +8e-11 -9.385284778511351e-05 +8e-11 2.6762799990561e-05 +8.000000000000001e-11 -0.00011675971553744503 +6e-11 -0.0059507666679226474 +1.0000000000000017e-11 -0.007395246616571542 +9.999999999999965e-12 -0.008894049312737854 +1.0000000000000017e-11 -0.01059821847733526 +1.0000000000000017e-11 -0.012713360969377321 +9.999999999999965e-12 -0.015073518872942475 +1.0000000000000017e-11 -0.01688813786101956 +1.0000000000000017e-11 -0.01623042928737601 +9.999999999999965e-12 -0.011196570222862117 +1.0000000000000017e-11 -0.00045438796620817667 +1.0000000000000017e-11 0.015221460400842582 +9.999999999999965e-12 0.03664644849091442 +1.0000000000000017e-11 0.06223961522281495 +1.0000000000000017e-11 0.09241493233957633 +9.999999999999965e-12 0.12657693734115694 +1.0000000000000017e-11 0.1644991079823812 +1.0000000000000017e-11 0.20693785703017983 +1.0000000000000017e-11 0.2541527625965729 +9.999999999999965e-12 0.30560479457437223 +9.999999999999965e-12 0.35825785898696444 +1.0000000000000069e-11 0.4096293444324354 +9.999999999999965e-12 0.45728956717794245 +9.999999999999965e-12 0.5002197897029131 +1.0000000000000069e-11 0.5376515307623744 +9.999999999999965e-12 0.570673817165327 +9.999999999999965e-12 0.6019112689784806 +1.0000000000000069e-11 0.6282498778190263 +9.999999999999965e-12 0.6522989054607832 +9.999999999999965e-12 0.6775668950799246 +1.0000000000000069e-11 0.6984814686344336 +9.999999999999965e-12 0.7198218095217189 +9.999999999999965e-12 0.7399863528444044 +1.0000000000000069e-11 0.7600576865931202 +9.999999999999965e-12 0.7774023976572987 +9.999999999999965e-12 0.7977034918650483 +1.0000000000000069e-11 0.8122337558340843 +9.999999999999965e-12 0.8291568501578372 +9.999999999999965e-12 0.8437321090877871 +1.0000000000000069e-11 0.8594598059319597 +9.999999999999965e-12 0.8712296823042075 +9.999999999999965e-12 0.8867816463860126 +1.0000000000000069e-11 0.8950823963451389 +9.999999999999965e-12 0.9065036164958589 +9.999999999999965e-12 0.9158644775316651 +1.0000000000000069e-11 0.9251166676325003 +9.999999999999965e-12 0.9349057981495236 +9.999999999999965e-12 0.9398022041111184 +1.0000000000000069e-11 0.9484719866733827 +9.999999999999965e-12 0.9531149466481373 +9.999999999999965e-12 0.9581409378718199 +1.0000000000000069e-11 0.9632190113348938 +9.999999999999965e-12 0.9674368196674661 +9.999999999999965e-12 0.9728224001214227 +1.0000000000000069e-11 0.9738189198743425 +9.999999999999965e-12 0.9780297340820716 +9.999999999999965e-12 0.9818812741893812 +1.0000000000000069e-11 0.9822727839189996 +9.999999999999965e-12 0.9855410990650239 +9.999999999999965e-12 0.9866635079827072 +1.0000000000000069e-11 0.9903922642653813 +9.999999999999965e-12 0.9897337907870158 +9.999999999999965e-12 0.9924979583217239 +1.0000000000000069e-11 0.9926575630359591 +9.999999999999965e-12 0.9931344711229041 +7.000000000000007e-11 0.9970821581304259 +5.0000000000000034e-11 0.9986840147209155 +4.999999999999983e-11 0.9993061606552949 +5.0000000000000034e-11 0.9996658235498179 +{GAP_POS} 0.9996658235498179 +8e-11 1.0002886700971136 +8e-11 1.0007163101621837 +4.000000000000002e-11 1.0031012785875522 +5.000000000000001e-11 1.0021906278966468 +3.9999999999999965e-11 0.9881750526281851 +2.0000000000000034e-11 0.9739550342421828 +9.999999999999965e-12 0.9665373171581904 +1.0000000000000017e-11 0.9538666883935104 +1.0000000000000017e-11 0.9401601786366058 +9.999999999999965e-12 0.9247054078063993 +1.0000000000000017e-11 0.9049110779432665 +1.0000000000000017e-11 0.880269933487052 +9.999999999999965e-12 0.8523897168845048 +1.0000000000000017e-11 0.8245993833504104 +1.0000000000000017e-11 0.7904770260833129 +9.999999999999965e-12 0.7525123279298584 +1.0000000000000017e-11 0.7165027005403548 +1.0000000000000017e-11 0.6665774281905568 +9.999999999999965e-12 0.6161249691625921 +1.0000000000000017e-11 0.564135702657014 +1.0000000000000017e-11 0.5102041847710029 +1.0000000000000017e-11 0.4601013692518495 +9.999999999999965e-12 0.4112333724456005 +9.999999999999965e-12 0.3652646660795674 +1.0000000000000069e-11 0.32294936738043456 +9.999999999999965e-12 0.2833459303307868 +9.999999999999965e-12 0.2468637617982276 +1.0000000000000069e-11 0.2130913174327769 +9.999999999999965e-12 0.18269907627680254 +9.999999999999965e-12 0.15416741989406163 +1.0000000000000069e-11 0.13000309738026336 +9.999999999999965e-12 0.10796654212710842 +9.999999999999965e-12 0.08944744984167147 +1.0000000000000069e-11 0.0735372143177867 +9.999999999999965e-12 0.05998091731118105 +9.999999999999965e-12 0.04921812369525502 +1.0000000000000069e-11 0.04023261537533973 +9.999999999999965e-12 0.03289106687035266 +9.999999999999965e-12 0.026859598340986085 +1.0000000000000069e-11 0.02205231231504326 +9.999999999999965e-12 0.01827151586583516 +9.999999999999965e-12 0.01502770728550355 +1.0000000000000069e-11 0.012273867123408798 +9.999999999999965e-12 0.010348619103495467 +9.999999999999965e-12 0.008464295946213398 +1.0000000000000069e-11 0.007194529472066833 +9.999999999999965e-12 0.005907607338777073 +9.999999999999965e-12 0.005244553105154027 +4.000000000000007e-11 0.002766394687596599 +3.9999999999999965e-11 0.0015117803973812487 +3.9999999999999965e-11 0.0009047295855083454 +4.000000000000007e-11 0.0005757326870062876 +3.9999999999999965e-11 0.0003743190548567621 +3.9999999999999965e-11 0.00023988773070584256 +4.000000000000007e-11 0.00014520478805554385 +4.000000000000007e-11 7.712442320156284e-05 +3.999999999999986e-11 2.824918946323586e-05 +4.000000000000007e-11 -6.3236197370618925e-06 +4.000000000000007e-11 -3.1104071387238e-05 +3.999999999999986e-11 -4.9084837013760487e-05 +4.000000000000007e-11 -6.210736289438462e-05 +4.000000000000007e-11 -7.160083033720719e-05 +3.999999999999986e-11 -7.85550391769715e-05 +4.000000000000007e-11 -8.362005413857695e-05 +4.000000000000007e-11 -8.724394490754775e-05 +3.999999999999986e-11 -8.992723533494174e-05 +{GAP_NEG} -8.992723533494174e-05)

V6 Kd 0 PWL(0 1.0056346176516866 +0.01e-12 1.0056346176516866 +8e-11 1.0056397553287542 +8e-11 1.0055735761795637 +8.000000000000001e-11 1.004400968017397 +6e-11 0.9928581165360592 +1.0000000000000017e-11 0.9869390400731648 +9.999999999999965e-12 0.9784953184577768 +1.0000000000000017e-11 0.9680100306625505 +1.0000000000000017e-11 0.9537809280074228 +9.999999999999965e-12 0.9366924913752536 +1.0000000000000017e-11 0.9176806143119147 +1.0000000000000017e-11 0.8912943837065755 +9.999999999999965e-12 0.8599322770425211 +1.0000000000000017e-11 0.8236661976122237 +1.0000000000000017e-11 0.7819791574122882 +9.999999999999965e-12 0.7382636983467931 +1.0000000000000017e-11 0.6927229229164225 +1.0000000000000017e-11 0.6466074752763927 +9.999999999999965e-12 0.5981118835020194 +1.0000000000000017e-11 0.5490629616271071 +1.0000000000000017e-11 0.5024626339035929 +1.0000000000000017e-11 0.45852726382032366 +9.999999999999965e-12 0.4173638135948665 +9.999999999999965e-12 0.3799760728213788 +1.0000000000000069e-11 0.3460333960281708 +9.999999999999965e-12 0.31412686647040805 +9.999999999999965e-12 0.28115221801908424 +1.0000000000000069e-11 0.24943123285425023 +9.999999999999965e-12 0.21847801708313133 +9.999999999999965e-12 0.1925974136647016 +1.0000000000000069e-11 0.16711659904624315 +9.999999999999965e-12 0.14405296377244234 +9.999999999999965e-12 0.12509520657892864 +1.0000000000000069e-11 0.1075085106479303 +9.999999999999965e-12 0.09288613946855886 +9.999999999999965e-12 0.08013202820236391 +1.0000000000000069e-11 0.0688093524798019 +9.999999999999965e-12 0.05813746731262322 +9.999999999999965e-12 0.05018631813539154 +1.0000000000000069e-11 0.04300014984646859 +9.999999999999965e-12 0.037403772729185505 +9.999999999999965e-12 0.030805004009571382 +1.0000000000000069e-11 0.026582602062500817 +9.999999999999965e-12 0.02269060160785283 +9.999999999999965e-12 0.019684925571528875 +1.0000000000000069e-11 0.016160291270511048 +9.999999999999965e-12 0.013870735609595184 +9.999999999999965e-12 0.012421241872590949 +1.0000000000000069e-11 0.010631811614926741 +9.999999999999965e-12 0.00882404608076181 +9.999999999999965e-12 0.0069632059445615575 +1.0000000000000069e-11 0.006353416705181175 +9.999999999999965e-12 0.005419734703191727 +9.999999999999965e-12 0.004481861667425859 +1.0000000000000069e-11 0.003538106533664826 +9.999999999999965e-12 0.003830522584927648 +9.999999999999965e-12 0.0025991020546714343 +1.0000000000000069e-11 0.001633088145949616 +9.999999999999965e-12 0.0019139914245132838 +9.999999999999965e-12 0.0019185546596143033 +1.0000000000000069e-11 0.0006747614800977936 +9.999999999999965e-12 0.000947459570638357 +9.999999999999965e-12 0.0009481085609735602 +1.0000000000000069e-11 0.0009502645727012462 +9.999999999999965e-12 0.0009498838354167196 +9.999999999999965e-12 0.000951482110329406 +1.0000000000000069e-11 0.0009515743956947123 +9.999999999999965e-12 0.0007741047382960154 +7.000000000000007e-11 -2.823706552288979e-05 +5.0000000000000034e-11 -2.828242961764878e-05 +4.999999999999983e-11 -2.830004860257456e-05 +5.0000000000000034e-11 -2.831023414710165e-05 +{GAP_POS} -2.831023414710165e-05 +8e-11 -2.8327872973173585e-05 +8e-11 0.00028270469857938596 +4.000000000000002e-11 0.0007087695016848747 +5.000000000000001e-11 -0.0018946498289839316 +3.9999999999999965e-11 -0.007754413967904869 +2.0000000000000034e-11 -0.011227575862593433 +9.999999999999965e-12 -0.013113143916703469 +1.0000000000000017e-11 -0.014938937044750716 +1.0000000000000017e-11 -0.015480734574904259 +9.999999999999965e-12 -0.010059484923717438 +1.0000000000000017e-11 0.0012984287777291238 +1.0000000000000017e-11 0.01930191149468025 +9.999999999999965e-12 0.04452007008182086 +1.0000000000000017e-11 0.07486912123749372 +1.0000000000000017e-11 0.10999454509789454 +9.999999999999965e-12 0.145567276477611 +1.0000000000000017e-11 0.1852773404463354 +1.0000000000000017e-11 0.2206597294496257 +9.999999999999965e-12 0.2558364044176429 +1.0000000000000017e-11 0.2899019966039848 +1.0000000000000017e-11 0.32210602015583034 +1.0000000000000017e-11 0.35435201511534425 +9.999999999999965e-12 0.38404178235765635 +9.999999999999965e-12 0.41416152905474396 +1.0000000000000069e-11 0.44261094435877024 +9.999999999999965e-12 0.4702092029679185 +9.999999999999965e-12 0.4971826160215113 +1.0000000000000069e-11 0.5224899650293038 +9.999999999999965e-12 0.5474968362582693 +9.999999999999965e-12 0.5693285704506338 +1.0000000000000069e-11 0.5921939530320472 +9.999999999999965e-12 0.6133097761191381 +9.999999999999965e-12 0.633244981590737 +1.0000000000000069e-11 0.6542434083263609 +9.999999999999965e-12 0.6725879677043267 +9.999999999999965e-12 0.6911225123962379 +1.0000000000000069e-11 0.7096465912961152 +9.999999999999965e-12 0.7280379449868924 +9.999999999999965e-12 0.745904837748677 +1.0000000000000069e-11 0.7627830925696438 +9.999999999999965e-12 0.7808994172758716 +9.999999999999965e-12 0.7983497243023467 +1.0000000000000069e-11 0.8131317348883946 +9.999999999999965e-12 0.8297154856290748 +9.999999999999965e-12 0.8451080642521497 +1.0000000000000069e-11 0.8584474558263009 +9.999999999999965e-12 0.8727177517108134 +9.999999999999965e-12 0.8808526085496298 +4.000000000000007e-11 0.9265737159756756 +3.9999999999999965e-11 0.9573438866312756 +3.9999999999999965e-11 0.9757982837128489 +4.000000000000007e-11 0.9871153508969559 +3.9999999999999965e-11 0.9942098422993401 +3.9999999999999965e-11 0.9985860468539249 +4.000000000000007e-11 1.000948163660687 +4.000000000000007e-11 1.0023920963403479 +3.999999999999986e-11 1.0032933736096117 +4.000000000000007e-11 1.0038224525883517 +4.000000000000007e-11 1.004184384056233 +3.999999999999986e-11 1.0047317402826328 +4.000000000000007e-11 1.004717917096744 +4.000000000000007e-11 1.0050962447743517 +3.999999999999986e-11 1.0056560045145624 +4.000000000000007e-11 1.0056506245041739 +4.000000000000007e-11 1.0056467752421023 +3.999999999999986e-11 1.0056439250767062 +{GAP_NEG} 1.0056439250767062)

.ENDS
