*********************************************************************
*
* IBIS filename: ltc6957_3.ibs
* Component: LTC6957_3
* Model: CMOS_I
* Model Type: Input
* Corner: Typical
* Voltage Range (V): [3.3 3.15 3.45] (Typ, Min, Max)
* Temperature Range (degC): [50.0 -40.0 110.0] (Typ, Min, Max)
* SPICE subcircuit model created with pybis2spice version 1.2
* For more info, visit https://github.com/kamratia1/pybis2spice/
*
*********************************************************************

.SUBCKT CMOS_I-Input-Typical IN

.param C_pkg = 3e-13
.param L_pkg = 1e-09
.param R_pkg = 0.14
.param C_comp = 2.16e-13

R1 IN MID {R_pkg}
L1 DIE MID {L_pkg}
C1 IN 0 {C_pkg}
C2 DIE 0 {C_comp}

V1 PWR_CLAMP_REF 0 3.3
B1 DIE PWR_CLAMP_REF I = table(V(DIE), -3.3, -6.600115e-11, 0.020000000000000018, -3.25993e-11, 0.21999999999999975, -2.85944e-11, 0.41999999999999993, -2.45894e-11, 0.6199999999999997, -2.05845e-11, 0.8199999999999998, -1.65795e-11, 1.02, -1.25746e-11, 1.2199999999999998, -8.56962e-12, 1.42, -4.56467e-12, 1.6199999999999999, 0.0, 1.8199999999999998, 3.44524e-12, 2.0199999999999996, 7.45019e-12, 2.2199999999999998, 1.14551e-11, 2.42, 1.54601e-11, 2.6199999999999997, 1.9465e-11, 2.82, 2.347e-11, 3.0199999999999996, 2.74749e-11, 3.2199999999999998, 3.14799e-11, 3.42, 3.6057e-11, 3.6199999999999997, 9.12768e-11, 3.635, 1.29625e-10, 3.65, 1.91075e-10, 3.665, 3.02315e-10, 3.69, 6.69834e-10, 3.705, 1.13233e-09, 3.7199999999999998, 1.87556e-09, 3.735, 3.22385e-09, 3.75, 5.39093e-09, 3.7649999999999997, 9.32288e-09, 3.78, 1.56432e-08, 3.795, 2.71117e-08, 3.8099999999999996, 4.55471e-08, 3.8249999999999997, 7.89994e-08, 3.84, 1.32773e-07, 3.855, 2.3034e-07, 3.8699999999999997, 3.87155e-07, 3.885, 6.71583e-07, 3.9, 1.12851e-06, 3.915, 1.95638e-06, 3.9299999999999997, 3.28445e-06, 3.945, 5.68338e-06, 3.96, 9.51715e-06, 3.9749999999999996, 1.63906e-05, 3.9899999999999998, 2.72831e-05, 4.005, 4.6539e-05, 4.02, 7.66583e-05, 4.035, 0.000128988, 4.05, 0.000209703, 4.0649999999999995, 0.000347031, 4.08, 0.000553879, 4.095, 0.000889191, 4.109999999999999, 0.00136606, 4.125, 0.00206662, 4.14, 0.00297334, 4.154999999999999, 0.0041487, 4.17, 0.00553155, 4.185, 0.007149, 4.2, 0.0089297, 4.215, 0.0108837, 4.2299999999999995, 0.012954, 4.245, 0.0151462, 4.26, 0.01742, 4.2749999999999995, 0.01978, 4.29, 0.0221985, 4.305, 0.0246795, 4.32, 0.0272035, 4.335, 0.0297742, 4.35, 0.0323776, 4.365, 0.0350168, 4.38, 0.0376814, 4.395, 0.0403742, 4.41, 0.0430872, 4.425, 0.0458229, 4.4399999999999995, 0.048575, 4.455, 0.0513456, 4.47, 0.0541297, 4.484999999999999, 0.0569293, 6.6, 0.4475043)
V2 GND_CLAMP_REF 0 0.0
B2 DIE GND_CLAMP_REF I = table(V(DIE), -3.3, -0.4426941, -1.185, -0.0581655, -1.17, -0.0554118, -1.155, -0.052672, -1.14, -0.0499444, -1.125, -0.0472334, -1.11, -0.0445372, -1.095, -0.0418612, -1.08, -0.0392032, -1.065, -0.0365702, -1.05, -0.0339595, -1.035, -0.0313803, -1.02, -0.0288295, -1.005, -0.0263193, -0.99, -0.0238463, -0.975, -0.0214269, -0.96, -0.0190574, -0.945, -0.0167609, -0.93, -0.0145334, -0.915, -0.0124082, -0.9, -0.0103808, -0.885, -0.00849935, -0.87, -0.00675703, -0.855, -0.00521925, -0.84, -0.00386912, -0.825, -0.0027759, -0.81, -0.00189455, -0.795, -0.0012624, -0.78, -0.000801745, -0.765, -0.000507791, -0.75, -0.000309216, -0.735, -0.000190998, -0.72, -0.00011393, -0.705, -6.93559e-05, -0.69, -4.07592e-05, -0.675, -2.45159e-05, -0.66, -1.42397e-05, -0.645, -8.49746e-06, -0.63, -4.90333e-06, -0.615, -2.91518e-06, -0.6, -1.67749e-06, -0.585, -9.95896e-07, -0.57, -5.72492e-07, -0.555, -3.39715e-07, -0.54, -1.95227e-07, -0.525, -1.15838e-07, -0.51, -6.65735e-08, -0.495, -3.95104e-08, -0.48, -2.27178e-08, -0.465, -1.34935e-08, -0.45, -7.77002e-09, -0.435, -4.62604e-09, -0.42, -2.67519e-09, -0.405, -1.60349e-09, -0.39, -9.38427e-10, -0.365, -4.12246e-10, -0.35, -2.53693e-10, -0.335, -1.66468e-10, -0.32, -1.12234e-10, -0.12, -3.60018e-11, 0.08, -3.13976e-11, 0.28, -2.73919e-11, 0.48, -2.33863e-11, 0.68, -1.93806e-11, 0.88, -1.5375e-11, 1.08, -1.13694e-11, 1.28, -7.36373e-12, 1.48, -3.35809e-12, 1.68, 0.0, 1.88, 4.65319e-12, 2.08, 8.65883e-12, 2.28, 1.26645e-11, 2.48, 1.66701e-11, 2.68, 2.06758e-11, 2.88, 2.46814e-11, 3.08, 2.8687e-11, 3.28, 3.26927e-11, 6.6, 6.618763e-11)

.ENDS
